[root]
type=Root
children=system
eventq_index=0
full_system=false
sim_quantum=0
time_sync_enable=false
time_sync_period=100000000000
time_sync_spin_threshold=100000000

[system]
type=System
children=clk_domain cpu00 cpu01 cpu02 cpu03 cpu04 cpu05 cpu06 cpu07 cpu08 cpu09 cpu10 cpu11 cpu12 cpu13 cpu14 cpu15 cpu16 cpu_clk_domain cpu_voltage_domain dvfs_handler l2 mem_ctrls0 mem_ctrls1 membus redirect_paths0 redirect_paths1 redirect_paths2 redirect_paths3 switch_cpus00 switch_cpus01 switch_cpus02 switch_cpus03 switch_cpus04 switch_cpus05 switch_cpus06 switch_cpus07 switch_cpus08 switch_cpus09 switch_cpus10 switch_cpus11 switch_cpus12 switch_cpus13 switch_cpus14 switch_cpus15 switch_cpus16 tol2bus voltage_domain
boot_osflags=a
cache_line_size=128
eventq_index=0
exit_on_work_items=false
init_param=0
kernel=
kernel_addr_check=true
kernel_extras=
kernel_extras_addrs=
load_addr_mask=18446744073709551615
load_offset=0
m5ops_base=0
mem_mode=atomic
mem_ranges=0:137438953472
memories=system.mem_ctrls0 system.mem_ctrls1
mmap_using_noreserve=true
multi_thread=false
num_work_ids=16
readfile=
redirect_paths=system.redirect_paths0 system.redirect_paths1 system.redirect_paths2 system.redirect_paths3
symbolfile=
thermal_components=
thermal_model=Null
work_begin_ckpt_count=0
work_begin_cpu_id_exit=-1
work_begin_exit_count=0
work_cpus_ckpt_count=0
work_end_ckpt_count=0
work_end_exit_count=0
work_item_id=-1
system_port=system.membus.slave[0]

[system.clk_domain]
type=SrcClockDomain
clock=1000
domain_id=-1
eventq_index=0
init_perf_level=0
voltage_domain=system.voltage_domain

[system.cpu00]
type=AtomicSimpleCPU
children=dcache dtb icache interrupts isa itb tracer workload
branchPred=Null
checker=Null
clk_domain=system.cpu_clk_domain
cpu_id=0
default_p_state=UNDEFINED
do_checkpoint_insts=true
do_quiesce=true
do_statistics_insts=true
dtb=system.cpu00.dtb
eventq_index=0
function_trace=false
function_trace_start=0
interrupts=system.cpu00.interrupts
isa=system.cpu00.isa
itb=system.cpu00.itb
max_insts_all_threads=0
max_insts_any_thread=2000000000
numThreads=1
p_state_clk_gate_bins=20
p_state_clk_gate_max=1000000000000
p_state_clk_gate_min=1000
power_gating_on_idle=false
power_model=
profile=0
progress_interval=0
pwr_gating_latency=300
simpoint_start_insts=
simulate_data_stalls=false
simulate_inst_stalls=false
socket_id=0
switched_out=false
syscallRetryLatency=10000
system=system
tracer=system.cpu00.tracer
wait_for_remote_gdb=false
width=1
workload=system.cpu00.workload
dcache_port=system.cpu00.dcache.cpu_side
icache_port=system.cpu00.icache.cpu_side

[system.cpu00.dcache]
type=Cache
children=replacement_policy tags
addr_ranges=0:18446744073709551615
assoc=32
clk_domain=system.cpu_clk_domain
clusivity=mostly_incl
compressor=Null
data_latency=2
default_p_state=UNDEFINED
demand_mshr_reserve=1
eventq_index=0
is_read_only=false
max_miss_count=0
mshrs=4
p_state_clk_gate_bins=20
p_state_clk_gate_max=1000000000000
p_state_clk_gate_min=1000
power_model=
prefetch_on_access=false
prefetcher=Null
replacement_policy=system.cpu00.dcache.replacement_policy
response_latency=2
sequential_access=false
size=32768
system=system
tag_latency=2
tags=system.cpu00.dcache.tags
tgts_per_mshr=20
warmup_percentage=0
write_allocator=Null
write_buffers=8
writeback_clean=false
cpu_side=system.cpu00.dcache_port
mem_side=system.tol2bus.slave[1]

[system.cpu00.dcache.replacement_policy]
type=LRURP
eventq_index=0

[system.cpu00.dcache.tags]
type=BaseSetAssoc
children=indexing_policy
assoc=32
block_size=128
clk_domain=system.cpu_clk_domain
default_p_state=UNDEFINED
entry_size=128
eventq_index=0
indexing_policy=system.cpu00.dcache.tags.indexing_policy
p_state_clk_gate_bins=20
p_state_clk_gate_max=1000000000000
p_state_clk_gate_min=1000
power_model=
replacement_policy=system.cpu00.dcache.replacement_policy
sequential_access=false
size=32768
system=system
tag_latency=2
warmup_percentage=0

[system.cpu00.dcache.tags.indexing_policy]
type=SetAssociative
assoc=32
entry_size=128
eventq_index=0
size=32768

[system.cpu00.dtb]
type=ArmTLB
children=stage2_mmu walker
eventq_index=0
is_stage2=false
size=64
sys=system
walker=system.cpu00.dtb.walker

[system.cpu00.dtb.stage2_mmu]
type=ArmStage2MMU
children=stage2_tlb
eventq_index=0
stage2_tlb=system.cpu00.dtb.stage2_mmu.stage2_tlb
sys=system
tlb=system.cpu00.dtb

[system.cpu00.dtb.stage2_mmu.stage2_tlb]
type=ArmTLB
children=walker
eventq_index=0
is_stage2=true
size=32
sys=system
walker=system.cpu00.dtb.stage2_mmu.stage2_tlb.walker

[system.cpu00.dtb.stage2_mmu.stage2_tlb.walker]
type=ArmTableWalker
clk_domain=system.cpu_clk_domain
default_p_state=UNDEFINED
eventq_index=0
is_stage2=true
num_squash_per_cycle=2
p_state_clk_gate_bins=20
p_state_clk_gate_max=1000000000000
p_state_clk_gate_min=1000
power_model=
sys=system

[system.cpu00.dtb.walker]
type=ArmTableWalker
clk_domain=system.cpu_clk_domain
default_p_state=UNDEFINED
eventq_index=0
is_stage2=false
num_squash_per_cycle=2
p_state_clk_gate_bins=20
p_state_clk_gate_max=1000000000000
p_state_clk_gate_min=1000
power_model=
sys=system
port=system.tol2bus.slave[3]

[system.cpu00.icache]
type=Cache
children=replacement_policy tags
addr_ranges=0:18446744073709551615
assoc=39
clk_domain=system.cpu_clk_domain
clusivity=mostly_incl
compressor=Null
data_latency=2
default_p_state=UNDEFINED
demand_mshr_reserve=1
eventq_index=0
is_read_only=true
max_miss_count=0
mshrs=4
p_state_clk_gate_bins=20
p_state_clk_gate_max=1000000000000
p_state_clk_gate_min=1000
power_model=
prefetch_on_access=false
prefetcher=Null
replacement_policy=system.cpu00.icache.replacement_policy
response_latency=2
sequential_access=false
size=79872
system=system
tag_latency=2
tags=system.cpu00.icache.tags
tgts_per_mshr=20
warmup_percentage=0
write_allocator=Null
write_buffers=8
writeback_clean=true
cpu_side=system.cpu00.icache_port
mem_side=system.tol2bus.slave[0]

[system.cpu00.icache.replacement_policy]
type=LRURP
eventq_index=0

[system.cpu00.icache.tags]
type=BaseSetAssoc
children=indexing_policy
assoc=39
block_size=128
clk_domain=system.cpu_clk_domain
default_p_state=UNDEFINED
entry_size=128
eventq_index=0
indexing_policy=system.cpu00.icache.tags.indexing_policy
p_state_clk_gate_bins=20
p_state_clk_gate_max=1000000000000
p_state_clk_gate_min=1000
power_model=
replacement_policy=system.cpu00.icache.replacement_policy
sequential_access=false
size=79872
system=system
tag_latency=2
warmup_percentage=0

[system.cpu00.icache.tags.indexing_policy]
type=SetAssociative
assoc=39
entry_size=128
eventq_index=0
size=79872

[system.cpu00.interrupts]
type=ArmInterrupts
eventq_index=0

[system.cpu00.isa]
type=ArmISA
decoderFlavour=Generic
eventq_index=0
fpsid=1090793632
id_aa64afr0_el1=0
id_aa64afr1_el1=0
id_aa64dfr0_el1=1052678
id_aa64dfr1_el1=0
id_aa64isar0_el1=0
id_aa64isar1_el1=0
id_aa64mmfr0_el1=15728642
id_aa64mmfr1_el1=1052672
id_aa64mmfr2_el1=0
id_isar0=34607377
id_isar1=34677009
id_isar2=555950401
id_isar3=17899825
id_isar4=268501314
id_isar5=0
id_mmfr0=270536963
id_mmfr1=0
id_mmfr2=19070976
id_mmfr3=34611729
impdef_nop=false
midr=0
pmu=Null
sve_vl_se=1
system=system

[system.cpu00.itb]
type=ArmTLB
children=stage2_mmu walker
eventq_index=0
is_stage2=false
size=64
sys=system
walker=system.cpu00.itb.walker

[system.cpu00.itb.stage2_mmu]
type=ArmStage2MMU
children=stage2_tlb
eventq_index=0
stage2_tlb=system.cpu00.itb.stage2_mmu.stage2_tlb
sys=system
tlb=system.cpu00.itb

[system.cpu00.itb.stage2_mmu.stage2_tlb]
type=ArmTLB
children=walker
eventq_index=0
is_stage2=true
size=32
sys=system
walker=system.cpu00.itb.stage2_mmu.stage2_tlb.walker

[system.cpu00.itb.stage2_mmu.stage2_tlb.walker]
type=ArmTableWalker
clk_domain=system.cpu_clk_domain
default_p_state=UNDEFINED
eventq_index=0
is_stage2=true
num_squash_per_cycle=2
p_state_clk_gate_bins=20
p_state_clk_gate_max=1000000000000
p_state_clk_gate_min=1000
power_model=
sys=system

[system.cpu00.itb.walker]
type=ArmTableWalker
clk_domain=system.cpu_clk_domain
default_p_state=UNDEFINED
eventq_index=0
is_stage2=false
num_squash_per_cycle=2
p_state_clk_gate_bins=20
p_state_clk_gate_max=1000000000000
p_state_clk_gate_min=1000
power_model=
sys=system
port=system.tol2bus.slave[2]

[system.cpu00.tracer]
type=ExeTracer
eventq_index=0

[system.cpu00.workload]
type=Process
cmd=dpi-queue
cwd=/users/yangzhou/gem5
drivers=
egid=100
env=
errout=cerr
euid=100
eventq_index=0
executable=/users/yangzhou/NetBricks-GEM5/target/aarch64-unknown-linux-gnu/release/dpi-queue
gid=100
input=cin
kvmInSE=false
maxStackSize=67108864
output=cout
pgid=100
pid=100
ppid=0
release=5.1.0
simpoint=0
system=system
uid=100
useArchPT=false

[system.cpu01]
type=AtomicSimpleCPU
children=clk_domain dcache dtb icache interrupts isa itb tracer
branchPred=Null
checker=Null
clk_domain=system.cpu01.clk_domain
cpu_id=1
default_p_state=UNDEFINED
do_checkpoint_insts=true
do_quiesce=true
do_statistics_insts=true
dtb=system.cpu01.dtb
eventq_index=0
function_trace=false
function_trace_start=0
interrupts=system.cpu01.interrupts
isa=system.cpu01.isa
itb=system.cpu01.itb
max_insts_all_threads=0
max_insts_any_thread=2000000000
numThreads=1
p_state_clk_gate_bins=20
p_state_clk_gate_max=1000000000000
p_state_clk_gate_min=1000
power_gating_on_idle=false
power_model=
profile=0
progress_interval=0
pwr_gating_latency=300
simpoint_start_insts=
simulate_data_stalls=false
simulate_inst_stalls=false
socket_id=0
switched_out=false
syscallRetryLatency=10000
system=system
tracer=system.cpu01.tracer
wait_for_remote_gdb=false
width=1
workload=system.cpu00.workload
dcache_port=system.cpu01.dcache.cpu_side
icache_port=system.cpu01.icache.cpu_side

[system.cpu01.clk_domain]
type=SrcClockDomain
clock=1786
domain_id=-1
eventq_index=0
init_perf_level=0
voltage_domain=system.cpu_voltage_domain

[system.cpu01.dcache]
type=Cache
children=replacement_policy tags
addr_ranges=0:18446744073709551615
assoc=1
clk_domain=system.cpu01.clk_domain
clusivity=mostly_incl
compressor=Null
data_latency=2
default_p_state=UNDEFINED
demand_mshr_reserve=1
eventq_index=0
is_read_only=false
max_miss_count=0
mshrs=4
p_state_clk_gate_bins=20
p_state_clk_gate_max=1000000000000
p_state_clk_gate_min=1000
power_model=
prefetch_on_access=false
prefetcher=Null
replacement_policy=system.cpu01.dcache.replacement_policy
response_latency=2
sequential_access=false
size=8192
system=system
tag_latency=2
tags=system.cpu01.dcache.tags
tgts_per_mshr=20
warmup_percentage=0
write_allocator=Null
write_buffers=8
writeback_clean=false
cpu_side=system.cpu01.dcache_port
mem_side=system.membus.slave[3]

[system.cpu01.dcache.replacement_policy]
type=LRURP
eventq_index=0

[system.cpu01.dcache.tags]
type=BaseSetAssoc
children=indexing_policy
assoc=1
block_size=128
clk_domain=system.cpu01.clk_domain
default_p_state=UNDEFINED
entry_size=128
eventq_index=0
indexing_policy=system.cpu01.dcache.tags.indexing_policy
p_state_clk_gate_bins=20
p_state_clk_gate_max=1000000000000
p_state_clk_gate_min=1000
power_model=
replacement_policy=system.cpu01.dcache.replacement_policy
sequential_access=false
size=8192
system=system
tag_latency=2
warmup_percentage=0

[system.cpu01.dcache.tags.indexing_policy]
type=SetAssociative
assoc=1
entry_size=128
eventq_index=0
size=8192

[system.cpu01.dtb]
type=ArmTLB
children=stage2_mmu walker
eventq_index=0
is_stage2=false
size=64
sys=system
walker=system.cpu01.dtb.walker

[system.cpu01.dtb.stage2_mmu]
type=ArmStage2MMU
children=stage2_tlb
eventq_index=0
stage2_tlb=system.cpu01.dtb.stage2_mmu.stage2_tlb
sys=system
tlb=system.cpu01.dtb

[system.cpu01.dtb.stage2_mmu.stage2_tlb]
type=ArmTLB
children=walker
eventq_index=0
is_stage2=true
size=32
sys=system
walker=system.cpu01.dtb.stage2_mmu.stage2_tlb.walker

[system.cpu01.dtb.stage2_mmu.stage2_tlb.walker]
type=ArmTableWalker
clk_domain=system.cpu01.clk_domain
default_p_state=UNDEFINED
eventq_index=0
is_stage2=true
num_squash_per_cycle=2
p_state_clk_gate_bins=20
p_state_clk_gate_max=1000000000000
p_state_clk_gate_min=1000
power_model=
sys=system

[system.cpu01.dtb.walker]
type=ArmTableWalker
clk_domain=system.cpu01.clk_domain
default_p_state=UNDEFINED
eventq_index=0
is_stage2=false
num_squash_per_cycle=2
p_state_clk_gate_bins=20
p_state_clk_gate_max=1000000000000
p_state_clk_gate_min=1000
power_model=
sys=system
port=system.membus.slave[5]

[system.cpu01.icache]
type=Cache
children=replacement_policy tags
addr_ranges=0:18446744073709551615
assoc=39
clk_domain=system.cpu01.clk_domain
clusivity=mostly_incl
compressor=Null
data_latency=2
default_p_state=UNDEFINED
demand_mshr_reserve=1
eventq_index=0
is_read_only=true
max_miss_count=0
mshrs=4
p_state_clk_gate_bins=20
p_state_clk_gate_max=1000000000000
p_state_clk_gate_min=1000
power_model=
prefetch_on_access=false
prefetcher=Null
replacement_policy=system.cpu01.icache.replacement_policy
response_latency=2
sequential_access=false
size=79872
system=system
tag_latency=2
tags=system.cpu01.icache.tags
tgts_per_mshr=20
warmup_percentage=0
write_allocator=Null
write_buffers=8
writeback_clean=true
cpu_side=system.cpu01.icache_port
mem_side=system.membus.slave[2]

[system.cpu01.icache.replacement_policy]
type=LRURP
eventq_index=0

[system.cpu01.icache.tags]
type=BaseSetAssoc
children=indexing_policy
assoc=39
block_size=128
clk_domain=system.cpu01.clk_domain
default_p_state=UNDEFINED
entry_size=128
eventq_index=0
indexing_policy=system.cpu01.icache.tags.indexing_policy
p_state_clk_gate_bins=20
p_state_clk_gate_max=1000000000000
p_state_clk_gate_min=1000
power_model=
replacement_policy=system.cpu01.icache.replacement_policy
sequential_access=false
size=79872
system=system
tag_latency=2
warmup_percentage=0

[system.cpu01.icache.tags.indexing_policy]
type=SetAssociative
assoc=39
entry_size=128
eventq_index=0
size=79872

[system.cpu01.interrupts]
type=ArmInterrupts
eventq_index=0

[system.cpu01.isa]
type=ArmISA
decoderFlavour=Generic
eventq_index=0
fpsid=1090793632
id_aa64afr0_el1=0
id_aa64afr1_el1=0
id_aa64dfr0_el1=1052678
id_aa64dfr1_el1=0
id_aa64isar0_el1=0
id_aa64isar1_el1=0
id_aa64mmfr0_el1=15728642
id_aa64mmfr1_el1=1052672
id_aa64mmfr2_el1=0
id_isar0=34607377
id_isar1=34677009
id_isar2=555950401
id_isar3=17899825
id_isar4=268501314
id_isar5=0
id_mmfr0=270536963
id_mmfr1=0
id_mmfr2=19070976
id_mmfr3=34611729
impdef_nop=false
midr=0
pmu=Null
sve_vl_se=1
system=system

[system.cpu01.itb]
type=ArmTLB
children=stage2_mmu walker
eventq_index=0
is_stage2=false
size=64
sys=system
walker=system.cpu01.itb.walker

[system.cpu01.itb.stage2_mmu]
type=ArmStage2MMU
children=stage2_tlb
eventq_index=0
stage2_tlb=system.cpu01.itb.stage2_mmu.stage2_tlb
sys=system
tlb=system.cpu01.itb

[system.cpu01.itb.stage2_mmu.stage2_tlb]
type=ArmTLB
children=walker
eventq_index=0
is_stage2=true
size=32
sys=system
walker=system.cpu01.itb.stage2_mmu.stage2_tlb.walker

[system.cpu01.itb.stage2_mmu.stage2_tlb.walker]
type=ArmTableWalker
clk_domain=system.cpu01.clk_domain
default_p_state=UNDEFINED
eventq_index=0
is_stage2=true
num_squash_per_cycle=2
p_state_clk_gate_bins=20
p_state_clk_gate_max=1000000000000
p_state_clk_gate_min=1000
power_model=
sys=system

[system.cpu01.itb.walker]
type=ArmTableWalker
clk_domain=system.cpu01.clk_domain
default_p_state=UNDEFINED
eventq_index=0
is_stage2=false
num_squash_per_cycle=2
p_state_clk_gate_bins=20
p_state_clk_gate_max=1000000000000
p_state_clk_gate_min=1000
power_model=
sys=system
port=system.membus.slave[4]

[system.cpu01.tracer]
type=ExeTracer
eventq_index=0

[system.cpu02]
type=AtomicSimpleCPU
children=dcache dtb icache interrupts isa itb tracer
branchPred=Null
checker=Null
clk_domain=system.cpu01.clk_domain
cpu_id=2
default_p_state=UNDEFINED
do_checkpoint_insts=true
do_quiesce=true
do_statistics_insts=true
dtb=system.cpu02.dtb
eventq_index=0
function_trace=false
function_trace_start=0
interrupts=system.cpu02.interrupts
isa=system.cpu02.isa
itb=system.cpu02.itb
max_insts_all_threads=0
max_insts_any_thread=2000000000
numThreads=1
p_state_clk_gate_bins=20
p_state_clk_gate_max=1000000000000
p_state_clk_gate_min=1000
power_gating_on_idle=false
power_model=
profile=0
progress_interval=0
pwr_gating_latency=300
simpoint_start_insts=
simulate_data_stalls=false
simulate_inst_stalls=false
socket_id=0
switched_out=false
syscallRetryLatency=10000
system=system
tracer=system.cpu02.tracer
wait_for_remote_gdb=false
width=1
workload=system.cpu00.workload
dcache_port=system.cpu02.dcache.cpu_side
icache_port=system.cpu02.icache.cpu_side

[system.cpu02.dcache]
type=Cache
children=replacement_policy tags
addr_ranges=0:18446744073709551615
assoc=1
clk_domain=system.cpu01.clk_domain
clusivity=mostly_incl
compressor=Null
data_latency=2
default_p_state=UNDEFINED
demand_mshr_reserve=1
eventq_index=0
is_read_only=false
max_miss_count=0
mshrs=4
p_state_clk_gate_bins=20
p_state_clk_gate_max=1000000000000
p_state_clk_gate_min=1000
power_model=
prefetch_on_access=false
prefetcher=Null
replacement_policy=system.cpu02.dcache.replacement_policy
response_latency=2
sequential_access=false
size=8192
system=system
tag_latency=2
tags=system.cpu02.dcache.tags
tgts_per_mshr=20
warmup_percentage=0
write_allocator=Null
write_buffers=8
writeback_clean=false
cpu_side=system.cpu02.dcache_port
mem_side=system.membus.slave[7]

[system.cpu02.dcache.replacement_policy]
type=LRURP
eventq_index=0

[system.cpu02.dcache.tags]
type=BaseSetAssoc
children=indexing_policy
assoc=1
block_size=128
clk_domain=system.cpu01.clk_domain
default_p_state=UNDEFINED
entry_size=128
eventq_index=0
indexing_policy=system.cpu02.dcache.tags.indexing_policy
p_state_clk_gate_bins=20
p_state_clk_gate_max=1000000000000
p_state_clk_gate_min=1000
power_model=
replacement_policy=system.cpu02.dcache.replacement_policy
sequential_access=false
size=8192
system=system
tag_latency=2
warmup_percentage=0

[system.cpu02.dcache.tags.indexing_policy]
type=SetAssociative
assoc=1
entry_size=128
eventq_index=0
size=8192

[system.cpu02.dtb]
type=ArmTLB
children=stage2_mmu walker
eventq_index=0
is_stage2=false
size=64
sys=system
walker=system.cpu02.dtb.walker

[system.cpu02.dtb.stage2_mmu]
type=ArmStage2MMU
children=stage2_tlb
eventq_index=0
stage2_tlb=system.cpu02.dtb.stage2_mmu.stage2_tlb
sys=system
tlb=system.cpu02.dtb

[system.cpu02.dtb.stage2_mmu.stage2_tlb]
type=ArmTLB
children=walker
eventq_index=0
is_stage2=true
size=32
sys=system
walker=system.cpu02.dtb.stage2_mmu.stage2_tlb.walker

[system.cpu02.dtb.stage2_mmu.stage2_tlb.walker]
type=ArmTableWalker
clk_domain=system.cpu01.clk_domain
default_p_state=UNDEFINED
eventq_index=0
is_stage2=true
num_squash_per_cycle=2
p_state_clk_gate_bins=20
p_state_clk_gate_max=1000000000000
p_state_clk_gate_min=1000
power_model=
sys=system

[system.cpu02.dtb.walker]
type=ArmTableWalker
clk_domain=system.cpu01.clk_domain
default_p_state=UNDEFINED
eventq_index=0
is_stage2=false
num_squash_per_cycle=2
p_state_clk_gate_bins=20
p_state_clk_gate_max=1000000000000
p_state_clk_gate_min=1000
power_model=
sys=system
port=system.membus.slave[9]

[system.cpu02.icache]
type=Cache
children=replacement_policy tags
addr_ranges=0:18446744073709551615
assoc=39
clk_domain=system.cpu01.clk_domain
clusivity=mostly_incl
compressor=Null
data_latency=2
default_p_state=UNDEFINED
demand_mshr_reserve=1
eventq_index=0
is_read_only=true
max_miss_count=0
mshrs=4
p_state_clk_gate_bins=20
p_state_clk_gate_max=1000000000000
p_state_clk_gate_min=1000
power_model=
prefetch_on_access=false
prefetcher=Null
replacement_policy=system.cpu02.icache.replacement_policy
response_latency=2
sequential_access=false
size=79872
system=system
tag_latency=2
tags=system.cpu02.icache.tags
tgts_per_mshr=20
warmup_percentage=0
write_allocator=Null
write_buffers=8
writeback_clean=true
cpu_side=system.cpu02.icache_port
mem_side=system.membus.slave[6]

[system.cpu02.icache.replacement_policy]
type=LRURP
eventq_index=0

[system.cpu02.icache.tags]
type=BaseSetAssoc
children=indexing_policy
assoc=39
block_size=128
clk_domain=system.cpu01.clk_domain
default_p_state=UNDEFINED
entry_size=128
eventq_index=0
indexing_policy=system.cpu02.icache.tags.indexing_policy
p_state_clk_gate_bins=20
p_state_clk_gate_max=1000000000000
p_state_clk_gate_min=1000
power_model=
replacement_policy=system.cpu02.icache.replacement_policy
sequential_access=false
size=79872
system=system
tag_latency=2
warmup_percentage=0

[system.cpu02.icache.tags.indexing_policy]
type=SetAssociative
assoc=39
entry_size=128
eventq_index=0
size=79872

[system.cpu02.interrupts]
type=ArmInterrupts
eventq_index=0

[system.cpu02.isa]
type=ArmISA
decoderFlavour=Generic
eventq_index=0
fpsid=1090793632
id_aa64afr0_el1=0
id_aa64afr1_el1=0
id_aa64dfr0_el1=1052678
id_aa64dfr1_el1=0
id_aa64isar0_el1=0
id_aa64isar1_el1=0
id_aa64mmfr0_el1=15728642
id_aa64mmfr1_el1=1052672
id_aa64mmfr2_el1=0
id_isar0=34607377
id_isar1=34677009
id_isar2=555950401
id_isar3=17899825
id_isar4=268501314
id_isar5=0
id_mmfr0=270536963
id_mmfr1=0
id_mmfr2=19070976
id_mmfr3=34611729
impdef_nop=false
midr=0
pmu=Null
sve_vl_se=1
system=system

[system.cpu02.itb]
type=ArmTLB
children=stage2_mmu walker
eventq_index=0
is_stage2=false
size=64
sys=system
walker=system.cpu02.itb.walker

[system.cpu02.itb.stage2_mmu]
type=ArmStage2MMU
children=stage2_tlb
eventq_index=0
stage2_tlb=system.cpu02.itb.stage2_mmu.stage2_tlb
sys=system
tlb=system.cpu02.itb

[system.cpu02.itb.stage2_mmu.stage2_tlb]
type=ArmTLB
children=walker
eventq_index=0
is_stage2=true
size=32
sys=system
walker=system.cpu02.itb.stage2_mmu.stage2_tlb.walker

[system.cpu02.itb.stage2_mmu.stage2_tlb.walker]
type=ArmTableWalker
clk_domain=system.cpu01.clk_domain
default_p_state=UNDEFINED
eventq_index=0
is_stage2=true
num_squash_per_cycle=2
p_state_clk_gate_bins=20
p_state_clk_gate_max=1000000000000
p_state_clk_gate_min=1000
power_model=
sys=system

[system.cpu02.itb.walker]
type=ArmTableWalker
clk_domain=system.cpu01.clk_domain
default_p_state=UNDEFINED
eventq_index=0
is_stage2=false
num_squash_per_cycle=2
p_state_clk_gate_bins=20
p_state_clk_gate_max=1000000000000
p_state_clk_gate_min=1000
power_model=
sys=system
port=system.membus.slave[8]

[system.cpu02.tracer]
type=ExeTracer
eventq_index=0

[system.cpu03]
type=AtomicSimpleCPU
children=dcache dtb icache interrupts isa itb tracer
branchPred=Null
checker=Null
clk_domain=system.cpu01.clk_domain
cpu_id=3
default_p_state=UNDEFINED
do_checkpoint_insts=true
do_quiesce=true
do_statistics_insts=true
dtb=system.cpu03.dtb
eventq_index=0
function_trace=false
function_trace_start=0
interrupts=system.cpu03.interrupts
isa=system.cpu03.isa
itb=system.cpu03.itb
max_insts_all_threads=0
max_insts_any_thread=2000000000
numThreads=1
p_state_clk_gate_bins=20
p_state_clk_gate_max=1000000000000
p_state_clk_gate_min=1000
power_gating_on_idle=false
power_model=
profile=0
progress_interval=0
pwr_gating_latency=300
simpoint_start_insts=
simulate_data_stalls=false
simulate_inst_stalls=false
socket_id=0
switched_out=false
syscallRetryLatency=10000
system=system
tracer=system.cpu03.tracer
wait_for_remote_gdb=false
width=1
workload=system.cpu00.workload
dcache_port=system.cpu03.dcache.cpu_side
icache_port=system.cpu03.icache.cpu_side

[system.cpu03.dcache]
type=Cache
children=replacement_policy tags
addr_ranges=0:18446744073709551615
assoc=1
clk_domain=system.cpu01.clk_domain
clusivity=mostly_incl
compressor=Null
data_latency=2
default_p_state=UNDEFINED
demand_mshr_reserve=1
eventq_index=0
is_read_only=false
max_miss_count=0
mshrs=4
p_state_clk_gate_bins=20
p_state_clk_gate_max=1000000000000
p_state_clk_gate_min=1000
power_model=
prefetch_on_access=false
prefetcher=Null
replacement_policy=system.cpu03.dcache.replacement_policy
response_latency=2
sequential_access=false
size=8192
system=system
tag_latency=2
tags=system.cpu03.dcache.tags
tgts_per_mshr=20
warmup_percentage=0
write_allocator=Null
write_buffers=8
writeback_clean=false
cpu_side=system.cpu03.dcache_port
mem_side=system.membus.slave[11]

[system.cpu03.dcache.replacement_policy]
type=LRURP
eventq_index=0

[system.cpu03.dcache.tags]
type=BaseSetAssoc
children=indexing_policy
assoc=1
block_size=128
clk_domain=system.cpu01.clk_domain
default_p_state=UNDEFINED
entry_size=128
eventq_index=0
indexing_policy=system.cpu03.dcache.tags.indexing_policy
p_state_clk_gate_bins=20
p_state_clk_gate_max=1000000000000
p_state_clk_gate_min=1000
power_model=
replacement_policy=system.cpu03.dcache.replacement_policy
sequential_access=false
size=8192
system=system
tag_latency=2
warmup_percentage=0

[system.cpu03.dcache.tags.indexing_policy]
type=SetAssociative
assoc=1
entry_size=128
eventq_index=0
size=8192

[system.cpu03.dtb]
type=ArmTLB
children=stage2_mmu walker
eventq_index=0
is_stage2=false
size=64
sys=system
walker=system.cpu03.dtb.walker

[system.cpu03.dtb.stage2_mmu]
type=ArmStage2MMU
children=stage2_tlb
eventq_index=0
stage2_tlb=system.cpu03.dtb.stage2_mmu.stage2_tlb
sys=system
tlb=system.cpu03.dtb

[system.cpu03.dtb.stage2_mmu.stage2_tlb]
type=ArmTLB
children=walker
eventq_index=0
is_stage2=true
size=32
sys=system
walker=system.cpu03.dtb.stage2_mmu.stage2_tlb.walker

[system.cpu03.dtb.stage2_mmu.stage2_tlb.walker]
type=ArmTableWalker
clk_domain=system.cpu01.clk_domain
default_p_state=UNDEFINED
eventq_index=0
is_stage2=true
num_squash_per_cycle=2
p_state_clk_gate_bins=20
p_state_clk_gate_max=1000000000000
p_state_clk_gate_min=1000
power_model=
sys=system

[system.cpu03.dtb.walker]
type=ArmTableWalker
clk_domain=system.cpu01.clk_domain
default_p_state=UNDEFINED
eventq_index=0
is_stage2=false
num_squash_per_cycle=2
p_state_clk_gate_bins=20
p_state_clk_gate_max=1000000000000
p_state_clk_gate_min=1000
power_model=
sys=system
port=system.membus.slave[13]

[system.cpu03.icache]
type=Cache
children=replacement_policy tags
addr_ranges=0:18446744073709551615
assoc=39
clk_domain=system.cpu01.clk_domain
clusivity=mostly_incl
compressor=Null
data_latency=2
default_p_state=UNDEFINED
demand_mshr_reserve=1
eventq_index=0
is_read_only=true
max_miss_count=0
mshrs=4
p_state_clk_gate_bins=20
p_state_clk_gate_max=1000000000000
p_state_clk_gate_min=1000
power_model=
prefetch_on_access=false
prefetcher=Null
replacement_policy=system.cpu03.icache.replacement_policy
response_latency=2
sequential_access=false
size=79872
system=system
tag_latency=2
tags=system.cpu03.icache.tags
tgts_per_mshr=20
warmup_percentage=0
write_allocator=Null
write_buffers=8
writeback_clean=true
cpu_side=system.cpu03.icache_port
mem_side=system.membus.slave[10]

[system.cpu03.icache.replacement_policy]
type=LRURP
eventq_index=0

[system.cpu03.icache.tags]
type=BaseSetAssoc
children=indexing_policy
assoc=39
block_size=128
clk_domain=system.cpu01.clk_domain
default_p_state=UNDEFINED
entry_size=128
eventq_index=0
indexing_policy=system.cpu03.icache.tags.indexing_policy
p_state_clk_gate_bins=20
p_state_clk_gate_max=1000000000000
p_state_clk_gate_min=1000
power_model=
replacement_policy=system.cpu03.icache.replacement_policy
sequential_access=false
size=79872
system=system
tag_latency=2
warmup_percentage=0

[system.cpu03.icache.tags.indexing_policy]
type=SetAssociative
assoc=39
entry_size=128
eventq_index=0
size=79872

[system.cpu03.interrupts]
type=ArmInterrupts
eventq_index=0

[system.cpu03.isa]
type=ArmISA
decoderFlavour=Generic
eventq_index=0
fpsid=1090793632
id_aa64afr0_el1=0
id_aa64afr1_el1=0
id_aa64dfr0_el1=1052678
id_aa64dfr1_el1=0
id_aa64isar0_el1=0
id_aa64isar1_el1=0
id_aa64mmfr0_el1=15728642
id_aa64mmfr1_el1=1052672
id_aa64mmfr2_el1=0
id_isar0=34607377
id_isar1=34677009
id_isar2=555950401
id_isar3=17899825
id_isar4=268501314
id_isar5=0
id_mmfr0=270536963
id_mmfr1=0
id_mmfr2=19070976
id_mmfr3=34611729
impdef_nop=false
midr=0
pmu=Null
sve_vl_se=1
system=system

[system.cpu03.itb]
type=ArmTLB
children=stage2_mmu walker
eventq_index=0
is_stage2=false
size=64
sys=system
walker=system.cpu03.itb.walker

[system.cpu03.itb.stage2_mmu]
type=ArmStage2MMU
children=stage2_tlb
eventq_index=0
stage2_tlb=system.cpu03.itb.stage2_mmu.stage2_tlb
sys=system
tlb=system.cpu03.itb

[system.cpu03.itb.stage2_mmu.stage2_tlb]
type=ArmTLB
children=walker
eventq_index=0
is_stage2=true
size=32
sys=system
walker=system.cpu03.itb.stage2_mmu.stage2_tlb.walker

[system.cpu03.itb.stage2_mmu.stage2_tlb.walker]
type=ArmTableWalker
clk_domain=system.cpu01.clk_domain
default_p_state=UNDEFINED
eventq_index=0
is_stage2=true
num_squash_per_cycle=2
p_state_clk_gate_bins=20
p_state_clk_gate_max=1000000000000
p_state_clk_gate_min=1000
power_model=
sys=system

[system.cpu03.itb.walker]
type=ArmTableWalker
clk_domain=system.cpu01.clk_domain
default_p_state=UNDEFINED
eventq_index=0
is_stage2=false
num_squash_per_cycle=2
p_state_clk_gate_bins=20
p_state_clk_gate_max=1000000000000
p_state_clk_gate_min=1000
power_model=
sys=system
port=system.membus.slave[12]

[system.cpu03.tracer]
type=ExeTracer
eventq_index=0

[system.cpu04]
type=AtomicSimpleCPU
children=dcache dtb icache interrupts isa itb tracer
branchPred=Null
checker=Null
clk_domain=system.cpu01.clk_domain
cpu_id=4
default_p_state=UNDEFINED
do_checkpoint_insts=true
do_quiesce=true
do_statistics_insts=true
dtb=system.cpu04.dtb
eventq_index=0
function_trace=false
function_trace_start=0
interrupts=system.cpu04.interrupts
isa=system.cpu04.isa
itb=system.cpu04.itb
max_insts_all_threads=0
max_insts_any_thread=2000000000
numThreads=1
p_state_clk_gate_bins=20
p_state_clk_gate_max=1000000000000
p_state_clk_gate_min=1000
power_gating_on_idle=false
power_model=
profile=0
progress_interval=0
pwr_gating_latency=300
simpoint_start_insts=
simulate_data_stalls=false
simulate_inst_stalls=false
socket_id=0
switched_out=false
syscallRetryLatency=10000
system=system
tracer=system.cpu04.tracer
wait_for_remote_gdb=false
width=1
workload=system.cpu00.workload
dcache_port=system.cpu04.dcache.cpu_side
icache_port=system.cpu04.icache.cpu_side

[system.cpu04.dcache]
type=Cache
children=replacement_policy tags
addr_ranges=0:18446744073709551615
assoc=1
clk_domain=system.cpu01.clk_domain
clusivity=mostly_incl
compressor=Null
data_latency=2
default_p_state=UNDEFINED
demand_mshr_reserve=1
eventq_index=0
is_read_only=false
max_miss_count=0
mshrs=4
p_state_clk_gate_bins=20
p_state_clk_gate_max=1000000000000
p_state_clk_gate_min=1000
power_model=
prefetch_on_access=false